powerflow/Codes/PF_Formulation/resultados_csv/14/caso_red/resultados_barras_PM.csv
ID_Barra,Tipo_Barra,Tensao_Mag_pu,Tensao_Ang_graus,P_Geracao_pu,Q_Geracao_pu,P_Carga_pu,Q_Carga_pu,Desvio_Tensao_QLIM_pu,Corte_Reativo_VLIM_pu
5001,1,1.043770822485051,2.532476578752804,0.0,0.0,0.0,0.0,0.0,0.0
5002,1,0.9922606699167978,29.49590556989283,0.0,0.0,0.0,0.0,0.0,0.0
5003,1,1.027653778617104,4.256052339542661,0.0,0.0,0.0,0.0,0.0,0.0
5004,1,1.0289999864519959,3.5515044425136377,0.0,0.0,0.0,0.0,0.0,0.0
5005,1,1.0499999861519027,3.551504442509826,0.0,0.0,0.0,0.0,0.0,0.0
5006,2,0.9939544979253641,11.624179541248882,0.6633440685230317,0.0,0.0,0.0,0.0,0.0
5008,1,0.9935098518095864,29.564441726295968,0.0,0.0,0.0,0.0,0.0,0.0
5009,2,1.0487333171858884,4.258710577803082,0.0002512711084050437,0.0,0.0,0.0,0.0,0.0
5010,2,1.0487333172148674,4.25867627552663,0.00025119142495641815,0.0,0.0,0.0,0.0,0.0
5011,2,1.0389131798511508,12.060506634771105,0.7430274029677192,0.0,0.0,0.0,0.0,0.0
5012,2,1.0383435177195797,12.3278060699289,0.8910578175243588,0.0,0.0,0.0,0.0,0.0
5013,2,1.0486263040518329,4.258083866644475,0.0002470782316596145,0.0,0.0,0.0,0.0,0.0
5014,2,1.0486263040741297,4.25804922079399,0.00024693314365474003,0.0,0.0,0.0,0.0,0.0
5015,2,1.0006365905699075,4.2568583391135375,0.00025378850930355356,0.0,0.0,0.0,0.0,0.0
5016,2,1.001947406473886,3.551644164249387,4.068657971994612e-5,0.0,0.0,0.0,0.0,0.0
5019,1,0.9926094369952758,27.634972959419486,0.0,0.0,0.0,0.0,0.0,0.0
5020,1,0.9731846048865906,22.8713366862659,0.0,0.0,0.0,0.0,0.0,0.0
5021,1,1.0042345133311983,-13.357700602511049,0.0,0.0,0.0,0.0,0.0,0.0
5022,2,0.9539124599382054,2.532571959285985,0.00018162512027428037,-6.899966894277107,0.0,0.0,0.0,0.0
5028,1,1.0290302002855556,3.5511986737252292,0.0,0.0,0.0,0.0,0.0,0.0
5029,1,1.0279777070561482,4.639537747714807,0.0,0.0,0.0,0.0,0.0,0.0
5030,2,0.9909565696893967,12.743434185106098,1.1879924241670188,0.0,0.0,0.0,0.0,0.0
5031,1,1.0009520029755379,4.639537747714453,0.0,0.0,0.0,0.0,0.0,0.0
5032,2,1.001976825971988,3.551473355407089,4.089271639253747e-5,0.0,0.0,0.0,0.0,0.0
5033,1,1.0019768259835031,3.551198673722943,0.0,0.0,0.0,0.0,0.0,0.0
5034,1,0.9900300901221892,31.75702741838011,0.0,0.0,0.0,0.0,0.0,0.0
5035,1,1.0004466988040606,27.483653005402104,0.0,0.0,0.0,0.0,0.0,0.0
5036,1,0.9943017206149103,29.837910029943092,0.0,0.0,0.0,0.0,0.0,0.0
5037,1,1.0060291670799577,14.282613331928987,0.0,0.0,0.0,0.0,0.0,0.0
5038,1,0.974432771722421,15.908790432918359,0.0,0.0,0.0,0.0,0.0,0.0
5039,1,0.9713757881741926,17.346858161975756,0.0,0.0,0.0,0.0,0.0,0.0
5040,1,0.9584565267282091,18.59752221822529,0.0,0.0,-0.18600000000000003,0.158,0.0,0.0
5041,1,1.000223846853637,27.801365076341426,0.0,0.0,0.0,0.0,0.0,0.0
5042,1,0.9947882995906612,29.643687861091873,0.0,0.0,0.0,0.0,0.0,0.0
5043,1,0.9963917908732023,29.75324247645318,0.0,0.0,0.0,0.0,0.0,0.0
5044,1,0.9936734439632233,30.85050269523826,0.0,0.0,-0.29600000000000004,0.0538,0.0,0.0
5045,1,0.9985836980644348,-4.855932988250305,0.0,0.0,0.0,0.0,0.0,0.0
5046,1,0.9925644434121693,-3.6006341532376043,0.0,0.0,0.0,0.0,0.0,0.0
5047,1,0.9966410461016625,-4.020336176228303,0.0,0.0,0.0,0.0,0.0,0.0
5048,1,0.9913311970125275,-2.823511269653591,0.0,0.0,-0.109,0.0555,0.0,0.0
5049,1,0.9929075401810379,-8.440984004647952,0.0,0.0,0.0,0.0,0.0,0.0
5050,1,1.0510366290402835,3.849225421751493,0.0,0.0,0.0,0.0,0.0,0.0
5051,2,0.9888843687044765,3.849945461253941,0.00031004973692770366,-0.8786206463002045,0.0,0.0,0.0,0.0
5054,2,0.9888843687044765,3.849945461253941,0.00031004973692770366,-0.8786206463002069,0.0,0.0,0.0,0.0
5057,1,0.9927190783833928,-8.397340881964377,0.0,0.0,0.0,0.0,0.0,0.0
5058,1,0.9895887833899357,-7.272103108145515,0.0,0.0,0.0,0.0,0.0,0.0
5059,1,0.9899157098725102,-7.578888008519335,0.0,0.0,0.0,0.0,0.0,0.0
5060,1,1.0709554820601146,-0.9195808846373815,0.0,0.0,0.0,0.0,0.0,0.0
5061,3,1.0499998424645784,-2.0395192817790344e-11,2.1128488393414018,0.6677766329870023,0.0,0.0,0.0,0.0
5067,1,0.9891007691011233,-6.588238104460194,0.0,0.0,-0.06,0.00885,0.0,0.0
5068,1,0.995366193297252,26.000689478320893,0.0,0.0,0.0,0.0,0.0,0.0
5069,1,0.9953661932975326,26.00068947832363,0.0,0.0,0.0,0.0,0.0,0.0
5071,1,1.000308279109619,24.48467929196206,0.0,0.0,0.0,0.0,0.0,0.0
5073,1,0.9958937433895397,25.875431176820484,0.0,0.0,0.032,0.015,0.0,0.0
5075,1,0.987394331697098,28.497635566044398,0.0,0.0,-0.12,0.044500000000000005,0.0,0.0
5078,1,0.9982309879193542,31.36943172849786,0.0,0.0,-0.315,0.0463,0.0,0.0
5079,1,0.9883199499724853,28.70155932467628,0.0,0.0,-0.1,0.038,0.0,0.0
5081,1,0.9975200864688542,14.18346302931583,0.0,0.0,0.0,0.0,0.0,0.0
5083,1,0.991250058197806,11.313837148536185,0.0,0.0,1.7310000000000003,0.37799999999999995,0.0,0.0
5090,1,1.0720511420219034,5.054095237505442,0.0,0.0,0.0,0.0,0.0,0.0
5091,1,1.001897732517801,4.2614268691473125,0.0,0.0,0.0,0.0,0.0,0.0
5092,1,0.9988831676429009,4.015617931688349,0.0,0.0,0.0,0.0,0.0,0.0
5093,1,0.9902064117000988,2.876533473725404,0.0,0.0,0.335,0.133,0.0,0.0
5096,1,1.0080490617821627,13.293820506112487,0.0,0.0,0.0,0.0,0.0,0.0
5097,1,1.0080490617867168,13.29382050611338,0.0,0.0,0.0,0.0,0.0,0.0
5098,1,1.0004857057901262,4.619818780838283,0.0,0.0,0.0,0.0,0.0,0.0
5099,1,0.9968288802427488,2.7016025139711126,0.0,0.0,0.415,0.171,0.0,0.0
5100,1,1.0687774465650184,4.5340146710508575,0.0,0.0,0.0,0.0,0.0,0.0
5101,1,1.0007357710575764,4.102075250590144,0.0,0.0,0.0,0.0,0.0,0.0
5102,1,0.9932743923643906,3.322445772722247,0.0,0.0,0.0,0.0,0.0,0.0
5103,1,0.9939327358795409,3.35196883675723,0.0,0.0,-0.004,0.0,0.0,0.0
5104,1,0.9932743923643691,3.3224457727273444,0.0,0.0,0.0,0.0,0.0,0.0
5106,1,0.9904022348202902,2.9477815601792465,0.0,0.0,0.009999999999999998,0.005,0.0,0.0
5110,1,0.9499999903216853,-3.0818122120849174,0.0,0.0,0.0,0.0,0.0,0.0
5111,1,0.9704494781716937,-1.0673062379549296,0.0,0.0,0.0,0.0,0.0,0.0
5113,1,0.9500000442272444,-2.2351115903874397,0.0,0.0,0.535,0.353,0.0,0.0
5115,1,1.048174888791211,-8.953928862296861,0.0,0.0,0.512,0.128,0.0,0.0
5116,1,1.048174888791211,-8.953928862296861,0.0,0.0,0.512,0.128,0.0,0.0
5117,1,1.0500000101656501,-7.710843493672465,0.0,0.0,0.512,0.128,0.0,0.0
5118,1,1.0481748886687905,-8.953928864957996,0.0,0.0,0.0,0.0,0.0,0.0
5119,1,1.0481748886687905,-8.953928864957996,0.0,0.0,0.0,0.0,0.0,0.0
5120,1,1.0454131201651082,-7.710843501228611,0.0,0.0,0.0,0.0,0.0,0.0
5121,1,0.9871075543957306,5.726894288721233,0.0,0.0,0.0,0.0,0.0,0.0
5123,1,0.9927270372991706,2.9247096603897753,0.0,0.0,1.6410000000000002,0.888,0.0,0.0
5124,1,0.9937960881865034,29.953002856919344,0.0,0.0,-0.132,0.0025700000000000002,0.0,0.0
5126,1,0.9931140393638255,31.040137979710376,0.0,0.0,-0.327,0.0604,0.0,0.0
5127,1,0.9967697104404668,31.620962478371638,0.0,0.0,-0.218,0.0168,0.0,0.0
5128,1,0.9905426139675277,25.689105632623637,0.0,0.0,0.0,0.0,0.0,0.0
5131,1,1.0216403008197672,2.9438625026217733,0.0,0.0,0.0,0.0,0.0,0.0
5132,1,1.0133810280954945,4.3837232168673586,0.0,0.0,0.023999999999999994,-0.013999999999999999,0.0,0.0
5133,1,1.0499866732913943,1.4962223519613547,0.0,0.0,1.3869999999999998,0.447,0.0,0.0
5134,2,1.0470122771747057,5.809900268566714,0.43520781225175004,0.0,0.0,0.0,0.0,0.0
5135,1,1.034322954996537,1.6230408229267586,0.0,0.0,0.0,0.0,0.0,0.0
5136,1,1.0343229549987627,1.6230408229448674,0.0,0.0,0.0,0.0,0.0,0.0
5137,1,1.0340978905122897,1.6394905315042618,0.0,0.0,0.0,0.0,0.0,0.0
5138,1,1.0340978905144511,1.6394905315249368,0.0,0.0,0.0,0.0,0.0,0.0
5139,1,0.9633904798380815,-3.0818947539092583,0.0,0.0,0.0,0.0,0.0,0.0
5140,1,1.0655530053949842,3.5114208627883587,0.0,0.0,0.0,0.0,0.0,0.0
5141,1,1.0141203046487441,3.1600817601001143,0.0,0.0,0.0,0.0,0.0,0.0
5142,1,1.013141448988429,3.0856685616081836,0.0,0.0,0.0,0.0,0.0,0.0
5143,1,0.9633904798361344,-3.0818947539053827,0.0,0.0,0.0,0.0,0.0,0.0
5144,1,0.9615455556543522,3.124699390292637,0.0,0.0,0.0,0.0,0.0,0.0
5145,2,1.0499998511035262,7.603564706637143,0.9522078095684932,1.158939319472779,0.0,0.0,0.0,0.0
5146,1,0.9633184555266732,-3.103926504957107,0.0,0.0,0.0,0.0,0.0,0.0
5147,2,1.0499998511035262,7.603564706637143,0.9522078095684932,1.158939319472779,0.0,0.0,0.0,0.0
5148,1,0.9633184555247334,-3.103926504953345,0.0,0.0,0.0,0.0,0.0,0.0
5149,1,0.9928242716519763,5.7807915008790935,0.0,0.0,0.0,0.0,0.0,0.0
5150,1,1.0243659907962577,3.4750437885185392,0.0,0.0,0.0,0.0,0.0,0.0
5151,2,1.027799126690642,5.559862386085204,0.6254894648539832,0.0,0.0,0.0,0.0,0.0
5152,1,1.0005761375053897,1.8657203070714086,0.0,0.0,0.0,0.0,0.0,0.0
5154,2,1.0278213773250338,5.525505709624244,0.8596014755000924,0.0,0.0,0.0,0.0,0.0
5155,1,1.0037107264112133,5.4547556979561715,0.0,0.0,0.0,0.0,0.0,0.0
5156,1,1.0241149555418658,-10.917264092255017,0.0,0.0,3.693,0.599,0.0,0.0
5157,1,1.0427873930177483,0.25126560853046215,0.0,0.0,0.0,0.0,0.0,0.0
5158,1,1.0349026078199397,-0.8032818528160915,0.0,0.0,0.12200000000000001,0.049,0.0,0.0
5159,1,1.0439829002249408,0.5000861726485476,0.0,0.0,0.0,0.0,0.0,0.0
5160,1,1.0374379979162092,-0.3353410449765381,0.0,0.0,0.09699999999999999,0.040999999999999995,0.0,0.0
5162,1,1.0081031525942377,3.2089670471312024,0.0,0.0,0.0,0.0,0.0,0.0
5164,1,1.0236626231245756,1.8658427256171215,0.0,0.0,0.0,0.0,0.0,0.0
5165,1,1.0236626231244705,1.8658427256137102,0.0,0.0,0.0,0.0,0.0,0.0
5166,1,1.0271058230715575,-1.5538374946885658,0.0,0.0,0.143,0.053,0.0,0.0
5167,1,0.9857478755959541,6.6513658868040295,0.0,0.0,0.0,0.0,0.0,0.0
5168,1,0.9892259873182283,26.51383031853691,0.0,0.0,0.0,0.0,0.0,0.0
5169,1,0.9752516656317218,26.956839582787556,0.0,0.0,0.0,0.0,0.0,0.0
5170,1,0.9894938139385623,32.63780698466275,0.0,0.0,-0.792,0.0978,0.0,0.0
5176,1,1.0491466552878153,14.755599644930939,0.0,0.0,0.0,0.0,0.0,0.0
5178,2,1.0128242335668738,4.980618247970769,2.4998991749562673,0.0,0.0,0.0,0.0,0.0
5180,1,1.0714360088096488,6.453154061866098,0.0,0.0,0.0,0.0,0.0,0.0
5181,1,1.0124602802734115,4.8740471256502,0.0,0.0,0.8,0.233,0.0,0.0
5183,1,1.0155589522960453,2.651546956733279,0.0,0.0,1.2990000000000002,0.48,0.0,0.0
5184,1,1.0128242333136797,4.979221953685147,0.0,0.0,0.0,0.0,0.0,0.0
5191,1,1.0073772116840545,3.224878946514183,0.0,0.0,0.0,0.0,0.0,0.0
5193,1,1.029730280520422,-4.0093389188311415,0.0,0.0,1.9969999999999999,0.743,0.0,0.0
5196,1,1.0288746922352172,-4.120946626952372,0.0,0.0,-0.079,-0.002526,0.0,0.0
5199,1,1.028730660081179,-4.391851438398848,0.0,0.0,0.0,0.0,0.0,0.0
5200,1,1.0686037132860713,13.558759215096886,0.0,0.0,0.0,0.0,0.0,0.0
5201,1,1.0098310877917596,4.992463845433419,0.0,0.0,0.0,0.0,0.0,0.0
5202,1,1.0087863199084133,12.313776796940308,0.0,0.0,0.0,0.0,0.0,0.0
5203,1,1.0115287319224113,3.73128605651278,0.0,0.0,0.0,0.0,0.0,0.0
5204,1,1.023286972046423,5.177699652476721,0.0,0.0,0.0,0.0,0.0,0.0
5205,2,1.0499988356644634,8.151200578307437,0.21232807995280137,0.11235820861307635,0.0,0.0,0.0,0.0
5206,1,1.0112814303813853,3.6693153047067404,0.0,0.0,0.0,0.0,0.0,0.0
5207,1,1.0107009873591857,3.594228060313446,0.0,0.0,0.0,0.0,0.0,0.0
5208,1,1.0112814303798996,3.6693153046999702,0.0,0.0,0.0,0.0,0.0,0.0
5209,1,1.011281430382545,3.6693153047120255,0.0,0.0,0.0,0.0,0.0,0.0
5211,1,1.004942209802498,5.2001675533199165,0.0,0.0,0.0,0.0,0.0,0.0
5212,1,1.0047262792444747,5.14149362706423,0.0,0.0,0.0,0.0,0.0,0.0
5213,1,1.0192445812202087,0.04705334210818577,0.0,0.0,2.952,0.971,0.0,0.0
5214,1,1.0184653416853855,-0.19413070209388522,0.0,0.0,0.0,0.0,0.0,0.0
5215,1,1.018465341685974,-0.19413070208703903,0.0,0.0,0.0,0.0,0.0,0.0
5216,1,1.0102332074320386,11.504489369258796,0.0,0.0,0.0,0.0,0.0,0.0
5218,2,1.004845521891374,6.069097647767186,0.1890866189140802,0.0,0.0,0.0,0.0,0.0
5219,2,1.004845521891374,6.069097647767185,0.18908661891408002,0.0,0.0,0.0,0.0,0.0
5220,2,1.0102663622581771,11.649201964675422,1.2901186340756894e-5,0.0,0.0,0.0,0.0,0.0
5222,1,1.0102663622588812,11.649153658095292,0.0,0.0,0.0,0.0,0.0,0.0
5226,1,1.0149583364481327,10.001705984503964,0.0,0.0,-0.23600000000000002,-0.001,0.0,0.0
5231,1,0.9993714726033779,12.09280145935926,0.0,0.0,0.0,0.0,0.0,0.0
5232,2,0.950931251038665,12.085017850235008,1.7016512237772253e-5,-0.09999466973668933,0.0,0.0,0.0,0.0
5235,1,0.9910187125000286,12.441266112908272,0.0,0.0,0.0,0.0,0.0,0.0
5236,1,0.9993714726035802,12.092801459363223,0.0,0.0,0.0,0.0,0.0,0.0
5237,1,0.9886178653713377,12.084761896935124,0.0,0.0,0.0,0.0,0.0,0.0
5238,1,0.9757909788051747,12.08484679292268,0.0,0.0,0.0,0.0,0.0,0.0
5239,1,0.9985525248111515,11.649153658097157,0.0,0.0,0.0,0.0,0.0,0.0
5240,2,0.9927393868788283,18.41648626788768,3.655369389792901e-5,0.0,0.0,0.0,0.0,0.0
5241,1,0.9968588946133088,19.660996053791653,0.0,0.0,0.0,0.0,0.0,0.0
5242,2,0.9927393868783261,18.416488484297346,3.666200057773178e-5,0.0,0.0,0.0,0.0,0.0
5243,1,1.0058591587081664,16.644996347217287,0.0,0.0,1.6480000000000001,0.040999999999999995,0.0,0.0
5245,1,0.9972989008379715,19.909063706350977,0.0,0.0,0.0,0.0,0.0,0.0
5246,1,0.9924904422490336,18.41970143823286,0.0,0.0,1.014,0.08,0.0,0.0
5247,1,1.0141341696740995,9.910081899605201,0.0,0.0,0.0,0.0,0.0,0.0
5248,1,1.0141341696737547,9.91008189960024,0.0,0.0,0.0,0.0,0.0,0.0
5249,1,0.9500026877311812,9.792879797196312,0.0,0.0,0.0,0.0,0.0,0.0
5252,1,1.033971011549715,18.148351191147274,0.0,0.0,0.0,0.0,0.0,0.0
5253,1,0.9985193119959217,16.439551371351317,0.0,0.0,0.0,0.0,0.0,0.0
5254,1,0.9978225994639889,21.126899349595256,0.0,0.0,0.0,0.0,0.0,0.0
5255,1,1.037593326621955,18.727137739211503,0.0,0.0,0.0,0.0,0.0,0.0
5256,1,0.998519311995855,16.439551371337725,0.0,0.0,0.0,0.0,0.0,0.0
5257,1,0.9927031681567016,18.41607484991952,0.0,0.0,0.0,0.0,0.0,0.0
5258,1,0.9927393869636891,18.415738225760613,0.0,0.0,0.0,0.0,0.0,0.0
5259,1,1.0143225474277526,9.931062779595253,0.0,0.0,0.0,0.0,0.0,0.0
5262,1,1.0013681051723329,24.613145071790566,0.0,0.0,0.0,0.0,0.0,0.0
5263,1,0.9936730799732246,24.345378285592005,0.0,0.0,0.34900000000000003,0.01,0.0,0.0
5264,1,1.0143225474281226,9.931062779600559,0.0,0.0,0.0,0.0,0.0,0.0
5265,1,0.9963299322503716,24.60763072830406,0.0,0.0,0.0,0.0,0.0,0.0
5267,1,0.9963299322503716,24.60763072830406,0.0,0.0,0.0,0.0,0.0,0.0
5268,1,0.9963299322507884,24.607630728309424,0.0,0.0,0.0,0.0,0.0,0.0
5269,1,0.9963299322507884,24.607630728309424,0.0,0.0,0.0,0.0,0.0,0.0
5271,1,1.0062477047092098,5.099665684185405,0.0,0.0,0.0,0.0,0.0,0.0
5272,1,1.0189999117454633,5.60244383547158,0.0,0.0,0.0,0.0,0.0,0.0
5273,1,1.0171988354154649,2.786948991896273,0.0,0.0,1.963,0.7390000000000001,0.0,0.0
5274,1,1.0189999117463229,5.60244383547145,0.0,0.0,0.0,0.0,0.0,0.0
5276,1,1.0066604126820087,16.41687502911808,0.0,0.0,0.0,0.0,0.0,0.0
5277,1,1.0066604126819503,16.4168750291162,0.0,0.0,0.0,0.0,0.0,0.0
5281,1,0.9965495708097606,1.8659175525657163,0.0,0.0,0.0,0.0,0.0,0.0
5283,1,1.0097892531442723,-0.8561087386700751,0.0,0.0,1.6059999999999999,0.565,0.0,0.0
5285,1,1.019964338204621,16.094790812792795,0.0,0.0,0.0,0.0,0.0,0.0
5286,1,1.0199643382045804,16.094790812793498,0.0,0.0,0.0,0.0,0.0,0.0
5287,1,0.9832118118063418,14.679157840051486,0.0,0.0,0.0,0.0,0.0,0.0
5288,1,0.983211811805441,14.679157840056362,0.0,0.0,0.0,0.0,0.0,0.0
5291,1,0.9885497281338084,-6.786142338990583,0.0,0.0,0.0,0.0,0.0,0.0
...
